* diode test

.get dc_current.net

.pr dc I(I1) I(in)
.dc i1 1u 1A *1.1 temperature=0 >forward_voltage_t0.data
.dc i1 1u 1A *1.1 temperature=25 >forward_voltage_t25.data
.dc i1 1u 1A *1.1 temperature=50 >forward_voltage_t50.data
.dc i1 1u 1A *1.1 temperature=75 >forward_voltage_t75.data
.dc i1 1u 1A *1.1 temperature=100 >forward_voltage_t100.data

